Circuit: * D:\New Stuff\HaD\Visually Impaired\Github\Ver 0.0 Rel 0\LTSpice\receiver-4 .asc

Direct Newton iteration for .op point succeeded.

Date: Fri Sep 23 08:33:42 2016
Total elapsed time: 0.093 seconds.

tnom = 27
temp = 27
method = trap
totiter = 12
traniter = 0
tranpoints = 0
accept = 0
rejected = 0
matrix size = 72
fillins = 70
solver = Normal
Matrix Compiler1:     363 opcodes
Matrix Compiler2: 7.07 KB object code size

